<?xml version="1.0" encoding="UTF-8"?>
<flow xmlns="http://www.springframework.org/schema/webflow"
	xmlns:xsi="http://www.w3.org/2001/XMLSchema-instance"
	xsi:schemaLocation="http://www.springframework.org/schema/webflow
http://www.springframework.org/schema/webflow/spring-webflow-2.4.xsd">

	<var name="respuestaBean" class="com.jcg.examples.bean.Respuesta" />
	
	<view-state id="inicio" view="jsp/pregunta.jsp" model="loginBean">
		<transition on="dioRespuesta" to="gestionarRespuesta" />
	</view-state>

	<action-state id="gestionarRespuesta">
		<evaluate expression="yesNoService.gestionarRespuesta(respuestaBean)" />
		<transition on="*" to="pinesatelo" />
	</action-state>
	
	<view-state id="pinesatelo" view="jsp/repregunta.jsp" model="respuestaBean">
		<transition on="confirmoRespuesta" to="respuestaSopesada" />
	</view-state>
	
	<action-state id="respuestaSopesada">
		<evaluate expression="respuestaBean.respuesta" />
		<transition on="SI" to="si" />
		<transition on="NO" to="no" />
	</action-state>
	
	<end-state id="si" view="jsp/si.jsp"/>
	<end-state id="no" view="jsp/no.jsp" />
</flow>
